Version 4
SHEET 1 2036 680
WIRE -2048 -288 -2048 -336
WIRE -1760 -288 -1760 -336
WIRE -1440 -288 -1440 -336
WIRE -144 -288 -144 -336
WIRE 144 -288 144 -336
WIRE 464 -288 464 -336
WIRE -144 144 -144 96
WIRE 144 144 144 96
WIRE 464 144 464 96
WIRE -144 576 -144 528
WIRE 144 576 144 528
WIRE 464 576 464 528
FLAG -144 224 0
FLAG 144 224 0
FLAG 464 224 0
FLAG -144 96 Carrier_100
FLAG 144 96 Speech_100
FLAG 464 96 Mixed_100
FLAG -144 -208 0
FLAG 144 -208 0
FLAG 464 -208 0
FLAG -144 -336 Carrier_50
FLAG 144 -336 Speech_50
FLAG 464 -336 Mixed_50
FLAG -144 656 0
FLAG 144 656 0
FLAG 464 656 0
FLAG -144 528 Carrier_150
FLAG 144 528 Speech_150
FLAG 464 528 Mixed_150
FLAG -2048 -208 0
FLAG -1760 -208 0
FLAG -1440 -208 0
FLAG -2048 -336 Carrier_Add
FLAG -1760 -336 Speech_Add
FLAG -1440 -336 Add
SYMBOL voltage -144 128 R0
WINDOW 123 0 0 Left 0
WINDOW 39 0 0 Left 0
SYMATTR InstName V1
SYMATTR Value SINE(0 1 100k)
SYMBOL voltage 144 128 R0
WINDOW 123 0 0 Left 0
WINDOW 39 0 0 Left 0
SYMATTR InstName V2
SYMATTR Value SINE(1 1 1k)
SYMBOL bv 464 128 R0
SYMATTR InstName B1
SYMATTR Value V=V(Carrier_100)*V(Speech_100)
SYMBOL voltage -144 -304 R0
WINDOW 123 0 0 Left 0
WINDOW 39 0 0 Left 0
SYMATTR InstName V3
SYMATTR Value SINE(0 1 100k)
SYMBOL voltage 144 -304 R0
WINDOW 123 0 0 Left 0
WINDOW 39 0 0 Left 0
SYMATTR InstName V4
SYMATTR Value SINE(2 1 1k)
SYMBOL bv 464 -304 R0
SYMATTR InstName B2
SYMATTR Value V=V(Carrier_50)*V(Speech_50)
SYMBOL voltage -144 560 R0
WINDOW 123 0 0 Left 0
WINDOW 39 0 0 Left 0
SYMATTR InstName V5
SYMATTR Value SINE(0 1 100k)
SYMBOL voltage 144 560 R0
WINDOW 123 0 0 Left 0
WINDOW 39 0 0 Left 0
SYMATTR InstName V6
SYMATTR Value SINE(.5 1 1k)
SYMBOL bv 464 560 R0
SYMATTR InstName B3
SYMATTR Value V=V(Carrier_150)*V(Speech_150)
SYMBOL voltage -2048 -304 R0
WINDOW 123 0 0 Left 0
WINDOW 39 0 0 Left 0
SYMATTR InstName V7
SYMATTR Value SINE(0 1 100k)
SYMBOL voltage -1760 -304 R0
WINDOW 123 0 0 Left 0
WINDOW 39 0 0 Left 0
SYMATTR InstName V8
SYMATTR Value SINE(1 1 1k)
SYMBOL bv -1440 -304 R0
SYMATTR InstName B4
SYMATTR Value V=V(Carrier_Add)+V(Speech_Add)
TEXT -656 176 Left 2 !.tran 10m
TEXT 824 144 Left 2 ;100% Modulation
TEXT 824 -296 Left 2 ;50% Modulation
TEXT 824 512 Left 2 ;150% Modulation
TEXT 1176 136 Left 2 ;Modulation percentage above 100% will cause distortion of the envelope \nand reversal of the RF carrier's phase, creating spurious emmissions and\ninterference on adjacent channels.
TEXT -2072 -632 Left 2 ;Adding two sine waves of different frequencies combines their amplitides\nwithout affecting their frequencies.
TEXT -184 -656 Left 2 ;Multiplying two sine waves of different frequencies produces a new output spectrum.\nMixers and modulation/demodulation works by means of multiplicatoin.
