Version 4
SHEET 1 960 2084
WIRE -416 -16 -496 -16
WIRE -160 -16 -416 -16
WIRE -32 -16 -160 -16
WIRE -32 32 -32 -16
WIRE -496 96 -496 64
WIRE -496 96 -512 96
WIRE -400 96 -496 96
WIRE -160 96 -160 -16
WIRE -160 96 -176 96
WIRE -512 112 -512 96
WIRE -400 160 -496 160
WIRE -32 160 -32 112
WIRE -32 160 -176 160
WIRE -32 176 -32 160
WIRE -704 224 -784 224
WIRE -592 224 -624 224
WIRE -400 224 -528 224
WIRE -80 224 -176 224
WIRE -784 256 -784 224
WIRE -80 272 -80 224
WIRE -32 272 -32 256
WIRE -32 272 -80 272
WIRE -416 288 -416 -16
WIRE -400 288 -416 288
WIRE -144 288 -176 288
WIRE -144 368 -144 352
WIRE -496 400 -496 160
WIRE -32 400 -32 272
WIRE -32 400 -496 400
WIRE -496 432 -496 400
WIRE -496 528 -496 496
WIRE -304 848 -304 784
WIRE -304 1056 -304 928
WIRE -304 1056 -704 1056
WIRE 640 1056 -304 1056
WIRE -704 1104 -704 1056
WIRE -704 1248 -704 1184
WIRE -432 1248 -704 1248
WIRE 176 1296 -368 1296
WIRE -704 1360 -704 1248
WIRE -304 1360 -304 1056
WIRE -160 1360 -304 1360
WIRE -432 1376 -432 1344
WIRE -304 1424 -304 1360
WIRE 640 1424 640 1056
WIRE 640 1424 64 1424
WIRE -160 1472 -160 1360
WIRE -96 1472 -160 1472
WIRE -160 1520 -160 1472
WIRE -304 1536 -304 1504
WIRE -224 1536 -304 1536
WIRE -192 1536 -224 1536
WIRE 48 1552 -128 1552
WIRE -704 1568 -704 1440
WIRE -192 1568 -704 1568
WIRE 64 1584 64 1424
WIRE -304 1600 -304 1536
WIRE 48 1616 48 1552
WIRE 64 1616 48 1616
WIRE 176 1616 176 1296
WIRE 64 1664 48 1664
WIRE 640 1664 160 1664
WIRE 800 1664 720 1664
WIRE -96 1680 -96 1472
WIRE -704 1696 -704 1568
WIRE -128 1696 -704 1696
WIRE 48 1712 48 1664
WIRE 48 1712 -64 1712
WIRE -304 1728 -304 1680
WIRE -128 1728 -304 1728
WIRE 800 1728 800 1664
WIRE -304 1744 -304 1728
WIRE -160 1776 -160 1584
WIRE -96 1776 -96 1744
WIRE -96 1776 -160 1776
WIRE -224 1840 -224 1536
WIRE 96 1840 -224 1840
WIRE -304 1888 -304 1824
WIRE -160 1888 -160 1776
WIRE -160 1888 -304 1888
WIRE -704 1904 -704 1696
WIRE 96 1968 96 1840
WIRE -704 2064 -704 1968
WIRE -304 2064 -304 1888
WIRE 96 2064 96 2032
FLAG -144 368 0
FLAG -512 112 0
FLAG -496 528 0
FLAG -784 256 0
FLAG -304 2064 0
FLAG -304 784 0
FLAG -432 1376 0
FLAG -704 2064 0
FLAG 96 2064 0
FLAG 800 1728 0
SYMBOL Misc\\NE555 -288 192 R0
SYMATTR InstName U1
SYMBOL res -48 16 R0
SYMATTR InstName R1
SYMATTR Value 1k
SYMATTR SpiceLine tol=5
SYMBOL res -48 160 R0
SYMATTR InstName R2
SYMATTR Value 100k
SYMATTR SpiceLine tol=5
SYMBOL cap -160 288 R0
SYMATTR InstName C1
SYMATTR Value 0.01µ
SYMBOL cap -512 432 R0
SYMATTR InstName C2
SYMATTR Value 1µ
SYMBOL LED -528 208 R90
WINDOW 0 0 32 VBottom 2
WINDOW 3 72 32 VTop 2
SYMATTR InstName D1
SYMBOL voltage -496 -32 R0
WINDOW 0 -74 20 Left 2
WINDOW 3 -59 66 Left 2
WINDOW 123 0 0 Left 0
WINDOW 39 0 0 Left 0
SYMATTR InstName V1
SYMATTR Value 5
SYMBOL res -608 208 R90
WINDOW 0 0 56 VBottom 2
WINDOW 3 32 56 VTop 2
SYMATTR InstName R3
SYMATTR Value 1k
SYMBOL voltage -304 944 R180
WINDOW 0 24 96 Left 2
WINDOW 3 24 16 Left 2
WINDOW 123 0 0 Left 0
WINDOW 39 0 0 Left 0
SYMATTR InstName V2
SYMATTR Value 5
SYMBOL res -320 1408 R0
SYMATTR InstName R4
SYMATTR Value 5e3
SYMBOL res -320 1584 R0
SYMATTR InstName R5
SYMATTR Value 5e3
SYMBOL Comparators\\LT1720 -160 1488 R0
SYMATTR InstName U2
SYMBOL res -320 1728 R0
SYMATTR InstName R6
SYMATTR Value 5e3
SYMBOL Comparators\\LT1720 -96 1648 R0
SYMATTR InstName U3
SYMBOL npn -368 1248 M0
SYMATTR InstName Q1
SYMATTR Value 2N2222
SYMBOL Digital\\srflop 112 1712 M180
SYMATTR InstName A1
SYMBOL res -720 1088 R0
SYMATTR InstName R7
SYMATTR Value 1e3
SYMBOL res -720 1344 R0
SYMATTR InstName R8
SYMATTR Value 100e3
SYMBOL cap -720 1904 R0
SYMATTR InstName C3
SYMATTR Value 1e-6
SYMBOL cap 80 1968 R0
SYMATTR InstName C4
SYMATTR Value .01e-6
SYMBOL res 624 1680 R270
WINDOW 0 32 56 VTop 2
WINDOW 3 0 56 VBottom 2
SYMATTR InstName R9
SYMATTR Value 1e3
TEXT -680 552 Left 2 !.tran 1
TEXT -368 -176 Left 2 ;Astable Operation
TEXT -32 -224 Left 2 ;Charge Time = .693 * (R1 + R2) * C2\n \nDischarge time = 0.693 * (R2) * C2\n \nTotal Period = Charge Time + Discharge Time = .693 * (R1 + 2*R2) * C
TEXT -544 1544 Left 2 ;6 Threshold
TEXT -544 1672 Left 2 ;2 Trigger
TEXT -552 1216 Left 2 ;7 Discharge
TEXT 336 1640 Left 2 ;3 Output
TEXT -272 1016 Left 2 ;+5VDC
TEXT 368 1400 Left 2 ;4 Reset
TEXT 128 1904 Left 2 ;5 Control Voltage
TEXT -424 1912 Left 2 ;1 Ground
TEXT -40 872 Left 2 ;Internal View (not working)
TEXT -320 -224 Left 2 ;555 Timer
RECTANGLE Normal 464 1936 -592 1184 2
